! This file was written by the model and records all non-layout or debugging parameters used at run-time.
REGRIDDING_COORDINATE_UNITS = "m" ! default = "m"
                                ! Units of the regridding coordinate.
ALE_COORDINATE_CONFIG = "FNC1:1.0,100,2,1.e-3" ! default = "UNIFORM"
                                ! Determines how to specify the coordinate resolution. Valid options are:
                                !  PARAM       - use the vector-parameter ALE_RESOLUTION
                                !  UNIFORM[:N] - uniformly distributed
                                !  FILE:string - read from a file. The string specifies
                                !                the filename and variable name, separated
                                !                by a comma or space, e.g. FILE:lev.nc,dz
                                !                or FILE:lev.nc,interfaces=zw
                                !  WOA09[:N]   - the WOA09 vertical grid (approximately)
                                !  FNC1:string - FNC1:dz_min,H_total,power,precision
                                !  HYBRID:string - read from a file. The string specifies
                                !                the filename and two variable names, separated
                                !                by a comma or space, for sigma-2 and dz. e.g.
                                !                HYBRID:vgrid.nc,sigma2,dz
!ALE_RESOLUTION = 10*10.0       !   [m]
                                ! The distribution of vertical resolution for the target
                                ! grid used for Eulerian-like coordinates. For example,
                                ! in z-coordinate mode, the parameter is a list of level
                                ! thicknesses (in m). In sigma-coordinate mode, the list
                                ! is of non-dimensional fractions of the water column.
